10
Coordinates from ORCA-job LiFSI
  S   -1.38892879155707      0.00378250756836     -0.13823521891821
  S   1.39231205496932     -0.00987839008083     -0.14393113779699
  F   -1.65956318115289      1.57268070192889      0.11813106426994
  F   1.62771468549494     -1.59278243380916      0.06178279768022
  O   -1.31900478604750     -0.50256240899470      1.25301512855652
  O   -2.45277313556337     -0.45673462705833     -0.97915067181220
  O   2.46203318234560      0.45391525977903     -0.97538428374232
  O   1.34140953789737      0.45229590867339      1.26338463889146
  N   0.00061761981526      0.02611387037416     -0.89143578838283
  Li  0.01680281379833     -0.04941038838080      2.38442347125440
